
     RDKit          3D

 40 41  0  0  0  0  0  0  0  0999 V2000
   -3.6786   -1.3675   -0.7536 C   0  0  0  0  0  0  0  0  0  0  0  0
   -3.7650    0.1353   -0.6684 C   0  0  0  0  0  0  0  0  0  0  0  0
   -4.8918    0.5247    0.1294 N   0  0  0  0  0  0  0  0  0  0  0  0
   -2.4821    0.7545   -0.1327 C   0  0  0  0  0  0  0  0  0  0  0  0
   -2.1861    0.2353    1.2510 C   0  0  0  0  0  0  0  0  0  0  0  0
   -0.7527    0.6885    1.5628 C   0  0  0  0  0  0  0  0  0  0  0  0
    0.1309   -0.1727    0.7267 C   0  0  0  0  0  0  0  0  0  0  0  0
    1.5807    0.2538    0.8811 C   0  0  0  0  0  0  0  0  0  0  0  0
    1.8070    1.2151    1.6503 O   0  0  0  0  0  0  0  0  0  0  0  0
    2.5438   -0.4647    0.1492 N   0  0  0  0  0  0  0  0  0  0  0  0
    3.9392   -0.2671    0.1237 C   0  0  0  0  0  0  0  0  0  0  0  0
    4.6134    0.6034    0.9537 C   0  0  0  0  0  0  0  0  0  0  0  0
    5.9911    0.7014    0.8056 C   0  0  0  0  0  0  0  0  0  0  0  0
    6.6618   -0.0091   -0.0980 N   0  0  0  0  0  0  0  0  0  0  0  0
    6.0356   -0.8616   -0.9168 C   0  0  0  0  0  0  0  0  0  0  0  0
    4.6776   -0.9973   -0.8139 C   0  0  0  0  0  0  0  0  0  0  0  0
   -0.2249   -0.2231   -0.7083 C   0  0  0  0  0  0  0  0  0  0  0  0
   -1.4071    0.5866   -1.1182 C   0  0  0  0  0  0  0  0  0  0  0  0
   -2.7902   -1.7232   -1.2747 H   0  0  0  0  0  0  0  0  0  0  0  0
   -3.8559   -1.8609    0.2340 H   0  0  0  0  0  0  0  0  0  0  0  0
   -4.5570   -1.6864   -1.3890 H   0  0  0  0  0  0  0  0  0  0  0  0
   -3.9412    0.5127   -1.6977 H   0  0  0  0  0  0  0  0  0  0  0  0
   -4.7145    1.5151    0.4503 H   0  0  0  0  0  0  0  0  0  0  0  0
   -4.9950   -0.1134    0.9686 H   0  0  0  0  0  0  0  0  0  0  0  0
   -5.7469    0.5387   -0.4589 H   0  0  0  0  0  0  0  0  0  0  0  0
   -2.7338    1.8479    0.0063 H   0  0  0  0  0  0  0  0  0  0  0  0
   -2.1757   -0.8597    1.3110 H   0  0  0  0  0  0  0  0  0  0  0  0
   -2.8827    0.6998    1.9475 H   0  0  0  0  0  0  0  0  0  0  0  0
   -0.5235    0.5761    2.6216 H   0  0  0  0  0  0  0  0  0  0  0  0
   -0.7043    1.7661    1.2732 H   0  0  0  0  0  0  0  0  0  0  0  0
    0.1150   -1.1976    1.2018 H   0  0  0  0  0  0  0  0  0  0  0  0
    2.1745   -1.2641   -0.4619 H   0  0  0  0  0  0  0  0  0  0  0  0
    4.1035    1.1863    1.6949 H   0  0  0  0  0  0  0  0  0  0  0  0
    6.5000    1.3882    1.4645 H   0  0  0  0  0  0  0  0  0  0  0  0
    6.5800   -1.4539   -1.6673 H   0  0  0  0  0  0  0  0  0  0  0  0
    4.1601   -1.6993   -1.4890 H   0  0  0  0  0  0  0  0  0  0  0  0
   -0.4491   -1.2989   -0.9689 H   0  0  0  0  0  0  0  0  0  0  0  0
    0.6722    0.0243   -1.3122 H   0  0  0  0  0  0  0  0  0  0  0  0
   -1.0182    1.6002   -1.4140 H   0  0  0  0  0  0  0  0  0  0  0  0
   -1.8101    0.1664   -2.0798 H   0  0  0  0  0  0  0  0  0  0  0  0
  1  2  1  0
  2  3  1  0
  2  4  1  0
  4  5  1  0
  5  6  1  0
  6  7  1  0
  7  8  1  0
  8  9  2  0
  8 10  1  0
 10 11  1  0
 11 12  2  0
 12 13  1  0
 13 14  2  0
 14 15  1  0
 15 16  2  0
  7 17  1  0
 17 18  1  0
 18  4  1  0
 16 11  1  0
  1 19  1  0
  1 20  1  0
  1 21  1  0
  2 22  1  0
  3 23  1  0
  3 24  1  0
  3 25  1  0
  4 26  1  0
  5 27  1  0
  5 28  1  0
  6 29  1  0
  6 30  1  0
  7 31  1  0
 10 32  1  0
 12 33  1  0
 13 34  1  0
 15 35  1  0
 16 36  1  0
 17 37  1  0
 17 38  1  0
 18 39  1  0
 18 40  1  0
M  CHG  1   3   1
M  END
